1

C      0      0      0
1

C      -0.865239      -0.0658907      0.0191872
1

C      -0.873909      -0.0891032      0.0203722
1

C      -0.111683      -0.03673      0.0468661
1

C      -0.500574      -0.172247      0.0718977
1

C      -0.423937      -0.113302      0.103913
1

C      -0.404877      -0.165725      0.051961
1

C      -0.940353      -0.0648436      -0.0323486
1

C      -0.0530299      0.0427207      -0.012028
1

C      -0.449805      0.0562058      0.00812137
1

C      -0.942877      0.178568      0.0674104
1

C      -0.0832423      0.30897      0.0245108
1

C      -0.0586068      0.301163      0.0824364
1

C      -0.113973      0.239159      0.189258
1

C      -0.88699      0.273306      0.268255
1

C      -0.823902      0.235257      0.16763
1

C      -0.477535      0.239934      0.168111
1

C      -0.162827      0.155685      0.216686
1

C      -0.698859      0.0851787      0.329456
1

C      -0.321413      0.120309      0.280846
1

C      -0.909998      0.119144      0.244238
1

C      -0.407496      0.02535      0.258217
1

C      -0.780917      0.0165445      0.0953641
1

C      -0.748619      -0.0449303      0.0387077
1

C      -0.37854      -0.026088      0.122431
1

C      -0.149498      0.0271138      0.104144
1

C      -0.217727      -0.0940079      0.0291944
1

C      -0.153575      -0.192789      -0.00597205
1

C      -0.288117      -0.175054      0.0551321
1

C      -0.634546      -0.154713      0.0959383
1

C      -0.0401732      -0.115677      0.146841
1

C      -0.940721      -0.139033      0.218805
1

C      -0.214249      -0.171725      0.313108
1

C      -0.0680461      -0.0911627      0.332007
1

C      -0.792578      -0.100293      0.269507
1

C      -0.879431      -0.182958      0.262649
1

C      -0.278588      -0.362324      0.32543
1

C      -0.651099      -0.37018      0.238225
1

C      -0.318882      -0.474027      0.337007
1

C      -0.243279      -0.60868      0.282156
1

C      -0.308111      -0.743471      0.261524
1

C      -0.0472664      -0.819549      0.275695
1

C      -0.0931039      -0.722251      0.353142
1

C      -0.95153      -0.746163      0.310789
1

C      -0.622921      -0.811591      0.196048
1

C      -0.849691      -0.878666      0.0343803
1

C      -0.159653      -0.820292      -0.0103503
1

C      -0.542095      -0.899343      -0.126105
1

C      -0.187243      -0.908576      -0.124581
1

C      -0.145683      -0.866193      -0.189462
1

C      -0.247084      -0.937558      -0.338084
1

C      -0.941332      -0.974949      -0.365451
1

C      -0.411105      -0.906945      -0.402075
1

C      -0.579403      -0.879375      -0.390013
1

C      -0.69894      -0.988295      -0.383895
1

C      -0.156752      -0.982869      -0.412838
1

C      -0.954899      -1.1116      -0.398625
1

C      -0.834829      -1.12498      -0.346491
1

C      -0.391837      -1.16788      -0.337163
1

C      -0.225079      -0.99579      -0.265738
1

C      -0.0578543      -0.960884      -0.216518
1

C      -0.776589      -0.984893      -0.194336
1

C      -0.970311      -0.947256      -0.112181
1

C      -0.731603      -0.972972      -0.195039
1

C      -0.842539      -0.978814      -0.221795
1

C      -0.248699      -1.09429      -0.184005
1

C      -0.205182      -1.00013      -0.110092
1

C      -0.8718      -0.868985      -0.114589
1

C      -0.315236      -0.998228      0.00184973
1

C      -0.616463      -1.10396      0.0834143
1

C      -0.464966      -1.22474      -0.00370897
1

C      -0.115342      -1.35871      -0.0208369
1

C      -0.885607      -1.4035      -0.0261508
1

C      -0.835406      -1.50458      -0.10205
1

C      -0.851366      -1.56645      0.00387317
1

C      -0.0451051      -1.53995      -0.10208
1

C      -0.781179      -1.47656      -0.108503
1

C      -0.925627      -1.45899      -0.334115
1

C      -0.154804      -1.48021      -0.36935
1

C      -0.756659      -1.6095      -0.283709
1

C      -0.0572244      -1.5841      -0.397988
1

C      -0.368152      -1.49689      -0.428626
1

C      -0.863704      -1.55908      -0.489288
1

C      -0.171785      -1.62487      -0.474548
1

C      -0.724123      -1.58862      -0.539659
1

C      -0.729333      -1.6212      -0.534181
1

C      -0.273502      -1.51228      -0.40681
1

C      -0.309488      -1.48995      -0.492316
1

C      -0.860114      -1.4901      -0.399147
1

C      -0.777089      -1.54706      -0.430134
1

C      -0.218933      -1.51835      -0.367052
1

C      -0.941183      -1.56291      -0.290793
1

C      -0.553825      -1.60552      -0.311975
1

C      -0.587433      -1.60211      -0.407569
1

C      -0.561178      -1.62991      -0.491283
1

C      -0.253692      -1.56139      -0.386422
1

C      -0.670539      -1.60507      -0.419153
1

C      -0.947893      -1.65872      -0.413317
1

C      -0.948797      -1.64368      -0.440377
1

C      -0.565519      -1.63639      -0.320496
1

C      -0.745547      -1.57068      -0.29212
